/*--------------------------------*- C++ -*----------------------------------*\
  =========                 |
  \\      /  F ield         | OpenFOAM: The Open Source CFD Toolbox
   \\    /   O peration     | Website:  https://openfoam.org
    \\  /    A nd           | Version:  11
     \\/     M anipulation  |
\*---------------------------------------------------------------------------*/
FoamFile
{
    format      ascii;
    class       volScalarField;
    object      T;
}
// * * * * * * * * * * * * * * * * * * * * * * * * * * * * * * * * * * * * * //

dimensions      [0 0 0 1 0 0 0];

internalField   uniform 200;

boundaryField
{
    Out
    {
        type            zeroGradient;
    }

    In
    {
        type            fixedValue;  // Temperature is fixed at the boundary
        value           uniform 400; // 350 K
    }

    Wall
    {
        type            fixedValue;  // Fixed temperature on walls
        value           uniform 300; // 300 K
    }
	defaultFaces
    {
        type            empty;
    }
}

// ************************************************************************* //
