/*--------------------------------*- C++ -*----------------------------------*\
  =========                 |
  \\      /  F ield         | OpenFOAM: The Open Source CFD Toolbox
   \\    /   O peration     | Website:  https://openfoam.org
    \\  /    A nd           | Version:  11
     \\/     M anipulation  |
\*---------------------------------------------------------------------------*/
FoamFile
{
    format      ascii;
    class       polyBoundaryMesh;
    location    "constant/polyMesh";
    object      boundary;
}
// * * * * * * * * * * * * * * * * * * * * * * * * * * * * * * * * * * * * * //

3
(
    out
    {
        type            patch;
        physicalType    patch;
        nFaces          23452;
        startFace       17343;
    }
    in
    {
        type            patch;
        physicalType    patch;
        nFaces          142;
        startFace       40795;
    }
    wall
    {
        type            wall;
        physicalType    wall;
        nFaces          100;
        startFace       40937;
    }
)

// ************************************************************************* //
