/*--------------------------------*- C++ -*----------------------------------*\
  =========                 |
  \\      /  F ield         | OpenFOAM: The Open Source CFD Toolbox
   \\    /   O peration     | Website:  https://openfoam.org
    \\  /    A nd           | Version:  11
     \\/     M anipulation  |
\*---------------------------------------------------------------------------*/
FoamFile
{
    format      binary;
    class       volVectorField;
    location    "0";
    object      U;
}
// * * * * * * * * * * * * * * * * * * * * * * * * * * * * * * * * * * * * * //

dimensions      [0 1 -1 0 0 0 0];

internalField   uniform (20 0 0);

boundaryField
{
    front
    {
        type            symmetryPlane;
    }
    back
    {
        type            symmetryPlane;
    }
    inlet
    {
        type            fixedValue;
        value           uniform (20 0 0);
    }
    outlet
    {
        type            inletOutlet;
        inletValue      uniform (0 0 0);
        value           uniform (20 0 0);
    }
    lowerWall
    {
        type            fixedValue;
        value           uniform (20 0 0);
    }
    upperWall
    {
        type            symmetryPlane;
    }
}


// ************************************************************************* //
